/*--------------------------------*- C++ -*----------------------------------*\
| =========                 |                                                 |
| \\      /  F ield         | OpenFOAM: The Open Source CFD Toolbox           |
|  \\    /   O peration     | Version:  2.2.1                                 |
|   \\  /    A nd           | Web:      www.OpenFOAM.org                      |
|    \\/     M anipulation  |                                                 |
\*---------------------------------------------------------------------------*/
FoamFile
{
    version     2.0;
    format      ascii;
    class       dictionary;
    object      blockMeshDict;
}
// * * * * * * * * * * * * * * * * * * * * * * * * * * * * * * * * * * * * * //

convertToMeters 1;

vertices
(
    ( -0.03 -0.03 -0.03)
    (  0.03 -0.03 -0.03)
    (  0.03  0.03 -0.03)
    ( -0.03  0.03 -0.03)
    ( -0.03 -0.03 0.01)
    (  0.03 -0.03 0.01)
    (  0.03  0.03 0.01)
    ( -0.03  0.03 0.01)
);

blocks
(
    hex (0 1 2 3 4 5 6 7) (20 20 20) simpleGrading (1 1 1)
);

edges
(
);

boundary
(
    patch1
    {
        type patch;
        faces
        (
            (3 7 6 2)
        );
     }

     patch2
     {
	type patch;
	faces
	(
            (1 5 4 0)
	);
     }

     patch3
     {
	type patch;
	faces
	(  
            (0 3 2 1)
            (4 5 6 7)
	);
      }
   
     patch4
     {
	type patch;
	faces
	(
            (3 7 4 0)
            (2 6 5 1)
        );
     }
);

// ************************************************************************* //
