/*--------------------------------*- C++ -*----------------------------------*\
| =========                 |                                                 |
| \\      /  F ield         | OpenFOAM: The Open Source CFD Toolbox           |
|  \\    /   O peration     | Version:  2.2.2                                 |
|   \\  /    A nd           | Web:      www.OpenFOAM.org                      |
|    \\/     M anipulation  |                                                 |
\*---------------------------------------------------------------------------*/
FoamFile
{
    version     2.0;
    format      ascii;
    class       volScalarField;
    object      T;
}
// * * * * * * * * * * * * * * * * * * * * * * * * * * * * * * * * * * * * * //

dimensions      [0 0 0 1 0 0 0];

internalField   uniform 273;

boundaryField
{
    patch1
    {
        type            zeroGradient;
    }

    patch2
    {
        type            fixedValue;
        value           uniform 273;
    }

    patch3
    {
        type            zeroGradient;
    }

    patch4
    {
        type            fixedValue;
        value           uniform 573;
    }
 flange_patch1
    {
        type            zeroGradient;
    }


flange_patch2
    {
        type            fixedValue;
        value           uniform 273;
    }

    flange_patch3
    {
        type            zeroGradient;
    }

    flange_patch4
    {
        type            fixedValue;
        value           uniform 573;
}

// ************************************************************************* //
